
# ==================================================================================
# Parameter configuration
# ==================================================================================
[Config SyncInterval]

# ==================================================================================
# Simulation configuration
# ==================================================================================
sim-time-limit = 600s
warmup-period = 200s

#repeat = 3

# ==================================================================================
# Debug configuration
# ==================================================================================

#**.Endnode.ClockServo.EnableDebugOutput = true
#**.ClockServo.EnableSyntonize = false

#**.PTP_Stack.EbestModuleID.result-recording-modes = all
#**.PTP_Stack.stepsRemoved.result-recording-modes = all

#**.PTP_Stack.Port_*_ErbestModuleID.result-recording-modes = all
#**.PTP_Stack.Port_*_StateDecision.result-recording-modes = all
#**.PTP_Stack.Port_*_ForeignMasterDS_Cnt.result-recording-modes = all

# ==================================================================================
# Network configuration
# ==================================================================================

# ----------------------------------------------------------------------------------
# Nodes
# ----------------------------------------------------------------------------------
**.Nodes[*].typename = ${"PTP_BC_P2P_1S_M2", "PTP_TC_P2P_1S_M2"}
**.NumNodes = ${50}

# ==================================================================================
# PTP configuration
# ==================================================================================

**.LogAnnounceInterval      = -4
**.LogSyncInterval          = ${-6..4 step 2}
**.LogMinDelayReqInterval   = 0
**.LogMinPdelayReqInterval  = 0

# ==================================================================================
# Hardware configuration
# ==================================================================================

**.Foo.SeedOffset = ${SeedOffset = $repetition*1000 }

# ------------------------------------------------------
# Clock
# ------------------------------------------------------
**.Clock.BeginScaledTime = 0s

**.Endnode.NIC.ClockType  = "LibPLN_ScheduleClock"
**.Nodes[*].NIC.ClockType = "LibPLN_ScheduleClock"

**.Endnode.**.Clock.libPLN_TdGen_Seed  = ${SeedOffset} + 1
**.Nodes[*].**.Clock.libPLN_TdGen_Seed = SeedProvider(${SeedOffset}+3)

# ==================================================================================
# Trace configuration
# ==================================================================================

# ------------------------------------------------------
# PTP stack
# ------------------------------------------------------
**.PTP_Stack.EbestModuleID.result-recording-modes = all

# ------------------------------------------------------
# Ports
# ------------------------------------------------------
#**.PTP_Stack.Port_*_portState.result-recording-modes = all

# ----------------------------------------------------------------------------------
# TimeDiff Observer
# ----------------------------------------------------------------------------------
**.TimeDiffObserver[*].TraceInterval = 10ms
**.TimeDiffObserver[*].HwTimeDiff.result-recording-modes = -
**.TimeDiffObserver[*].ScaledTimeDiff.result-recording-modes = all

# ----------------------------------------------------------------------------------
# General node configuration
# ----------------------------------------------------------------------------------
**.result-recording-modes = -

