
# ==================================================================================
# Parameter configuration
# ==================================================================================
[Config PI_Parameters]

# ==================================================================================
# Simulation configuration
# ==================================================================================
sim-time-limit = 2000s
warmup-period = 100s

# ==================================================================================
# Network configuration
# ==================================================================================

# ==================================================================================
# Debug configuration
# ==================================================================================

# ==================================================================================
# PTP configuration
# ==================================================================================
**.LogSyncInterval          = 2

# ==================================================================================
# Hardware configuration
# ==================================================================================
**.PTP_Stack.offsetFromMasterFilter_Type = "NO_FILTER"
**.PTP_Stack.meanPathDelayFilter_Type = "NO_FILTER"
**.PTP_Stack.meanPeerDelayFilter_Type = "NO_FILTER"

# ------------------------------------------------------
# Clock Servo
# ------------------------------------------------------
#**.Slave.ClockServo.KP_ParameterMode = "CONSTANT"
**.Slave.ClockServo.KP_ParameterMode = "LIBPTP"
**.Slave.ClockServo.KI_ParameterMode = "CONSTANT"

#**.Slave.ClockServo.KP_Const = ${5, 2, 1, 0.5, 0.2, 0.1, 0.05, 0.02, 0.01, 0.005, 0.002, 0.001, 0.0005, 0.0002, 0.0001, 0.00005, 0.00002, 0.00001}
#**.Slave.ClockServo.KP_Const = ${0.030..0.100 step 0.010}
#**.Slave.ClockServo.KP_Const = ${0.050..0.200 step 0.010}
#**.Slave.ClockServo.KP_Const = ${0.000..0.200 step 0.005}
#**.Slave.ClockServo.KP_Const = ${0..1 step 0.05}
#**.Slave.ClockServo.KP_Const = ${0.3, 0.35, 0.4, 0.45, 0.50, 0.55}
#**.Slave.ClockServo.KP_Const = 1.44

#**.Slave.ClockServo.KI_Const = 0.0
#**.Slave.ClockServo.KI_Const = ${50, 5, 0.5, 0.05, 0.005}
#**.Slave.ClockServo.KI_Const = ${0.5, 0.05, 0.005, 0.0005, 0.00005}
**.Slave.ClockServo.KI_Const = ${0e-4..100e-4 step 5e-4}
